!This soil file is created by DSSAT translator tool on Thu Apr 02 16:21:50 EDT 2015.
*SOILS: Maricopa, AZ, USA; 

! Waring: There is a variable [sl_source] with oversized content [USDA ARS, ALARC], only first 11 bits will be applied.
!The ACE ID is N/A.
!This soil data is used for the experiment of ARMA0701_1.
!
*AZMC920001  USDA ARS, A CL      -99 -99
@SITE        COUNTRY          LAT     LONG SCS FAMILY
 -99         -99               -99     -99 -99
@ SCOM  SALB  SLU1  SLDR  SLRO  SLNF  SLPF  SMHB  SMPX  SMKE
   -99  0.13   -99   0.5    60   -99  0.93   -99   -99   -99
@  SLB  SLMH  SLLL  SDUL  SSAT  SRGF  SSKS  SBDM  SLOC  SLCL  SLSI  SLCF  SLNI  SLHW  SLHB  SCEC  SADC
     5   -99 0.202  0.32 0.417     1   4.3  1.31  0.41  0.34  0.31  0.00   -99   -99   -99   255     0
    15   -99 0.201 0.319 0.424 0.741   4.3  1.27  0.35  0.34  0.31     0   -99   -99   -99   255  0.03
    30   -99 0.199 0.319 0.424 0.607   4.3  1.27  0.27  0.34  0.31     0   -99   -99   -99   255  0.03
    50   -99 0.198 0.318 0.419 0.449   4.3   1.3  0.24  0.34  0.31     0   -99   -99   -99   245  0.02
    60   -99 0.198 0.318 0.387 0.301   4.3  1.47  0.16  0.34  0.31     0   -99   -99   -99   235  0.01
    70   -99 0.198 0.318 0.387 0.301   4.3  1.47  0.16  0.34  0.31     0   -99   -99   -99   235  0.01
    90   -99 0.186 0.299 0.359 0.183   4.3  1.57   0.3   0.3  0.25     0   -99   -99   -99   207  0.01
   110   -99 0.159 0.275 0.347   0.1   4.3  1.57   0.1  0.25   0.2     0   -99   -99   -99   173 0.005
   120   -99 0.159 0.275 0.347   0.1   4.3  1.57   0.1  0.25   0.2     0   -99   -99   -99   173 0.005
   130   -99 0.159 0.275 0.347   0.1   4.3  1.57   0.1  0.25   0.2     0   -99   -99   -99   173 0.005
   150   -99 0.136 0.254 0.336 0.055   4.3  1.57     0   0.2   0.2     0   -99   -99   -99   138 0.005
   170   -99 0.136 0.254 0.336 0.055   4.3  1.57     0   0.2   0.2     0   -99   -99   -99   138 0.005
   190   -99 0.128 0.244 0.331  0.03   4.3  1.57     0  0.18  0.17     0   -99   -99   -99   124 0.005
   210   -99 0.128 0.244 0.331  0.03   4.3  1.57     0  0.18  0.17     0   -99   -99   -99   124 0.005

